/*--------------------------------*- C++ -*----------------------------------*\
| =========                 |                                                 |
| \\      /  F ield         | OpenFOAM: The Open Source CFD Toolbox           |
|  \\    /   O peration     | Version:  plus                                  |
|   \\  /    A nd           | Web:      www.OpenFOAM.com                      |
|    \\/     M anipulation  |                                                 |
\*---------------------------------------------------------------------------*/
FoamFile
{
    version     2.0;
    format      ascii;
    class       dictionary;
    object      blockMeshDict;
}
// * * * * * * * * * * * * * * * * * * * * * * * * * * * * * * * * * * * * * //

scale   1;

vertices
(
	(  2.421 	-0.34 	 0.4145)	//0
	(  2.553	-0.34	 0.4145)	//1
	(  2.897	-0.34	 0.4145)	//2
	(  3.029	-0.34	 0.4145)	//3
	(  3.029	0.34	 0.4145)	//4
	(  2.897	0.34	 0.4145)	//5
	(  2.553	0.34	 0.4145)	//6
	(  2.421	0.34	 0.4145)	//7

	(  2.421	-0.34 	 0.463)	//8 
	(  2.553	-0.34    0.463) //9
	(  2.897	-0.34	 0.463)	//10
	(  3.029	-0.34	 0.463)	//11
	(  3.029	0.34	 0.463)	//12
	(  2.897	0.34	 0.463)	//13
	(  2.553	0.34	 0.463)	//14
	(  2.421	0.34	 0.463)	//15

	(  2.421	-0.34	 0.64)	//16
	(  2.553	-0.34	 0.64)	//17
	(  2.897	-0.34	 0.64)	//18
	(  3.029	-0.34	 0.64)	//19
	(  3.029	0.34	 0.64)	//20
	(  2.897	0.34	 0.64)	//21
	(  2.553	0.34	 0.64)	//22
	(  2.421	0.34	 0.64)	//23

	(  2.421	-0.34	 0.6885)	//24
	(  2.553	-0.34	 0.6885)	//25
	(  2.897	-0.34	 0.6885)	//26
	(  3.029	-0.34	 0.6885)	//27
	(  3.029	0.34	 0.6885)	//28
	(  2.897	0.34	 0.6885)	//29
	(  2.553	0.34	 0.6885)	//30
	(  2.421	0.34	 0.6885)	//31

);

blocks
(
    hex (0 1 6 7 8 9 14 15) (11 1 6) simpleGrading (1  1  1)		//b0
    hex (1 2 5 6 9 10 13 14) (55 1 6) simpleGrading (1  1  1)	  	//b1
    hex (2 3 4 5 10 11 12 13) (11 1 6) simpleGrading (1  1  1)		//b2

    hex (8 9 14 15 16 17 22 23) (11 1 47) simpleGrading (1  1  1)	//b3
    hex (9 10 13 14 17 18 21 22) (55 1 47) simpleGrading (1  1  1)	//b4 *
    hex (10 11 12 13 18 19 20 21) (11 1 47) simpleGrading (1  1  1)	//b5

    hex (16 17 22 23 24 25 30 31) (11 1 6) simpleGrading (1  1  1)	//b6	
    hex (17 18 21 22 25 26 29 30) (55 1 6) simpleGrading (1  1  1)	//b7
    hex (18 19 20 21 26 27 28 29) (11 1 6) simpleGrading (1  1  1)	//b8    
);

edges
(
);

boundary
(
    sides1
    {
        type overset;
        faces
        (
            (0	8	15	7)
			(8	16	23	15)
			(16	24	31	23)

            (3	4	12	11)
			(11	12	20	19)
			(19	20	28	27)

            (0	7	6	1)
			(1	6	5	2)
			(2	5	4	3)

            (24	25	30	31)
			(25	26	29	30)
			(26	27	28	29)
        );
    }
    symBack
    {
	    type symmetryPlane;
	    faces
		(	
	        (0	1	9	8)
			(1	2	10	9)
			(2	3	11	10)

			(8	9	16	17)
			(9	10	18	17)
			(10	11	19	18)

			(16	17	25	24)
			(17	18	26	25)
			(18	19	27	26)//front            
		);
    }
	symFront
    {
	    type symmetryPlane;
	    faces
		(
	        

            (6 7 15 14 )
            (5 6 14 13 )
            (4 5 13 12)
            (14 15 23 22)
            (13 14 22 21)
            (12 13 21 20)
            (22 23 31 30)
            (21 22 30 29)
            (20 21 29 28)//back
		);
    }
    floatingObject
    {
        type wall;
        faces ();
    }
);

// ************************************************************************* //
