/*--------------------------------*- C++ -*----------------------------------*\
| =========                 |                                                 |
| \\      /  F ield         | OpenFOAM: The Open Source CFD Toolbox           |
|  \\    /   O peration     | Version:  plus                                  |
|   \\  /    A nd           | Web:      www.OpenFOAM.com                      |
|    \\/     M anipulation  |                                                 |
\*---------------------------------------------------------------------------*/
FoamFile
{
    version     2.0;
    format      ascii;
    class       dictionary;
    object      blockMeshDict;
}
// * * * * * * * * * * * * * * * * * * * * * * * * * * * * * * * * * * * * * //

scale   1;

vertices
(
    (  0 	-0.35 	 0)	//0
	(  2.15	-0.35	 0)	//1
	(  3.3	-0.35	 0)	//2
	(  4.3	-0.35	 0)	//3
	(  4.3	-0.35	 0)	//4
	(  3.3	-0.35	 0)	//5
	(  2.15	-0.35	 0)	//6
	(  0	-0.35	 0)	//7

	(  0	-0.35 	 0.2)	//8 
	(  2.15	-0.35	 0.2)  	//9
	(  3.3	-0.35	 0.2)	//10
	(  4.3	-0.35	 0.2)	//11
	(  4.3	-0.35	 0.2)	//12
	(  3.3	-0.35	 0.2)	//13
	(  2.15	-0.35	 0.2)	//14
	(  0	-0.35	 0.2)	//15

	(  0	-0.35	 0.65)	//16
	(  2.15	-0.35	 0.65)	//17
	(  3.3	-0.35	 0.65)	//18
	(  4.3	-0.35	 0.65)	//19
	(  4.3	-0.35	 0.65)	//20
	(  3.3	-0.35	 0.65)	//21
	(  2.15	-0.35	 0.65)	//22
	(  0	-0.35	 0.65)	//23

	(  0	-0.35	 0.9)	//24
	(  2.15	-0.35	 0.9)	//25
	(  3.3	-0.35	 0.9)	//26
	(  4.3	-0.35	 0.9)	//27
	(  4.3	-0.35	 0.9)	//28
	(  3.3	-0.35	 0.9)	//29
	(  2.15	-0.35	 0.9)	//30
	(  0	-0.35	 0.9)	//31
	
// * * * * * * * * * * * * * * * * * * * * * * * * * * * * * * * * * * * * * //
// Using second index number
    (  0	0.35  	 0)	//64	32
	(  2.15	0.35	 	 0)	//65	33
	(  3.3	0.35	 	 0)	//66	34
	(  4.3	0.35	 	 0)	//67	35
	(  4.3	0.35	 0)	//68	36
	(  3.3	0.35	 0)	//69	37
	(  2.15 0.35	 0)	//70	38
	(  0	0.35	 0)	//71	39

	(  0	0.35  	 0.2)	//72	40
	(  2.15	0.35	 	 0.2)   //73	41
	(  3.3	0.35	 	 0.2)	//74	42
	(  4.3	0.35	 	 0.2)	//75	43
	(  4.3	0.35	 0.2)	//76	44
	(  3.3	0.35	 0.2)	//77	45
	(  2.15	0.35	 0.2)	//78	46
	(  0	0.35	 0.2)	//79	47

	(  0	0.35	 	 0.65)	//80	48
	(  2.15	0.35	 	 0.65)	//81	49
	(  3.3	0.35		 0.65)	//82	50
	(  4.3	0.35	 	 0.65)	//83	51
	(  4.3	0.35	 0.65)	//84	52
	(  3.3	0.35	 0.65)	//85	53
	(  2.15	0.35	 0.65)	//86	54
	(  0	0.35	 0.65)	//87	55

	(  0	0.35	 	 0.9)	//88	56
	(  2.15	0.35	 	 0.9)	//89	57
	(  3.3	0.35	 	 0.9)	//90	58
	(  4.3	0.35	 	 0.9)	//91	59
	(  4.3	0.35	 0.9)	//92	60
	(  3.3	0.35	 0.9)	//93	61
	(  2.15	0.35	 0.9)	//94	62
	(  0	0.35	 0.9)	//95	63
	
// * * * * * * * * * * * * * * * * * * * * * * * * * * * * * * * * * * * * * //	


	
);


blocks
(
// * * * * * * * * * * * * * * * * * * * * * * * * * * * * * * * * * * * * * //

hex (7 6 33 32 15 14 41 40) (108 35 10) simpleGrading (1  1  1)	//b9
hex (6 5 34 33 14 13 42 41) (58 35 10) simpleGrading (1  1  1)	//b10
hex (5 4 35 34 13 12 43 42) (50 35 10) simpleGrading (1  1  1)	//b11

hex (15 14 41 40 23 22 49 48) (108 35 23) simpleGrading (1  1  1)	//b12
hex (14 13 42 41 22 21 50 49) (58 35 23) simpleGrading (1  1  1)	//b13 *
hex (13 12 43 42 21 20 51 50) (50 35 23) simpleGrading (1  1  1)	//b14

hex (23 22 49 48 31 30 57 56) (108 35 13) simpleGrading (1  1  1)	//b15	
hex (22 21 50 49 30 29 58 57) (58 35 13) simpleGrading (1  1  1)	//b16
hex (21 20 51 50 29 28 59 58) (50 35 13) simpleGrading (1  1  1)	//b17

// * * * * * * * * * * * * * * * * * * * * * * * * * * * * * * * * * * * * * //


// * * * * * * * * * * * * * * * * * * * * * * * * * * * * * * * * * * * * * //
);


edges
(
);

boundary
(
    oversetPatch
    {
        type overset;
        faces ();
    }

    inlet
    {
        type patch;
        faces
        (
			

			(7	15	40	32)
			(15	23	48	40)
			(23	31	56	48)

			
        );
    }
	
    outlet
    {
        type patch;
        faces
        (
			

			(4	35	43	12)
			(12	43	51	20)
			(20	51	59	28)

			
        );
    }
	
    ground
    {
        type wall;
        faces
        (
			
			
			(7	32	33	6)
			(6	33	34	5)
			(5	34	35	4)

			
        );
    }
	
	
    walls
    {
        type patch;
        faces
        (
			(7 6 14 15)
			(6 5 13 14)
			(5 4 12 13)

			(15 14 22 23)
			(14 13 21 22)
			(13 12 20 21)

			(23 22 30 31)
			(22 21 29 30)
			(21 20 28 29)
				//front
			(33 32 40 41)
			(34 33 41 42)
			(35 34 42 43)

			(41 40 48 49)
			(42 41 49 50)
			(43 42 50 51)

			(49 48 56 57)
			(50 49 57 58)
			(51 50 58 59)

			//back
        );
    }
	
    atmosphere
    {
        type patch;
        faces
        (
			

			(31	30	57	56)
			(30	29	58	57)
			(29	28	59	58)

			
        );
    }
	
	floatingObject
    {
        type wall;
        faces ();
    }

);

mergePatchPairs
(
);

// ************************************************************************* //
