/*--------------------------------*- C++ -*----------------------------------*\
| =========                 |                                                 |
| \\      /  F ield         | OpenFOAM: The Open Source CFD Toolbox           |
|  \\    /   O peration     | Version:  plus                                  |
|   \\  /    A nd           | Web:      www.OpenFOAM.com                      |
|    \\/     M anipulation  |                                                 |
\*---------------------------------------------------------------------------*/
FoamFile
{
    version     2.0;
    format      ascii;
    class       dictionary;
    object      blockMeshDict;
}
// * * * * * * * * * * * * * * * * * * * * * * * * * * * * * * * * * * * * * //

scale   1;

vertices
(
    (2.4 -0.345 0.42)
	(3 -0.345 0.42)
	(3 0.345 0.42)
	(2.4 0.345 0.42)
// * * * * * * * * * * * * * * * * * * * * * * * * * * * * * * * * * * * * * //	
	(2.4 -0.345 0.67)
	(3 -0.345 0.67)
	(3 0.345 0.67)
	(2.4 0.345 0.67)

	
);


blocks
(
hex (0 1 2 3 4 5 6 7) (50 58 21) simpleGrading (1  1  1)	
// * * * * * * * * * * * * * * * * * * * * * * * * * * * * * * * * * * * * * //
);

edges
(
);

boundary
(
    sides
    {
        type overset;
        faces
        (
			(0 1 5 4)
			(4 5 6 7)
			(3 7 6 2)
			(0 3 2 1)
			(0 4 7 3)
			(1 2 6 5)
        );
    }


    floatingObject
    {
        type wall;
        faces ();
    }
);

// ************************************************************************* //
